/*--------------------------------*- C++ -*----------------------------------*\
| =========                 |                                                 |
| \\      /  F ield         | OpenFOAM: The Open Source CFD Toolbox           |
|  \\    /   O peration     | Version:  4.x                                   |
|   \\  /    A nd           | Web:      www.OpenFOAM.org                      |
|    \\/     M anipulation  |                                                 |
\*---------------------------------------------------------------------------*/
FoamFile
{
    version     2.0;
    format      ascii;
    class       dictionary;
    location    "system";
    object      fvSolution;
}
// * * * * * * * * * * * * * * * * * * * * * * * * * * * * * * * * * * * * * //

// kOmega fvSolution 
solvers
{
    "alpha.upper.*"
    {
        // nAlphaCorr      2;
        // nAlphaSubCycles 1;
        // cAlpha          1;

        // MULESCorr       yes;
        // nLimiterIter    3;

        // solver          smoothSolver;
        // smoother        symGaussSeidel;
        // tolerance       1e-8;
        // relTol          0;

        nAlphaSubCycles     2;
        nAlphaCorr          1;

        solver          smoothSolver;
        smoother        GaussSeidel;
        tolerance       1e-9;
        relTol          0;
        nSweeps         1;
    }

    // pcorr
    // {
    //     solver          PCG;
    //     preconditioner
    //     {
    //         preconditioner  GAMG;
    //         tolerance       1e-5;
    //         relTol          0;
    //         smoother        GaussSeidel;
    //     }
    //     tolerance       1e-5;
    //     relTol          0;
    //     // maxIter         50;
    // }

    p_rgh
    {
        solver           GAMG;
        tolerance        1e-7;
        relTol           0.05;

        smoother         GaussSeidel;
    };

    p_rghFinal
    {
        $p_rgh;
        relTol          0;
    }

    "(U|k|omega).*"
    {
        solver          smoothSolver;
        smoother        symGaussSeidel;
        tolerance       1e-07;
        relTol          0;
        minIter         1;
    }
}

PIMPLE
{
    // momentumPredictor   no;
    momentumPredictor   yes; 
    nOuterCorrectors    1;
    nCorrectors         3;
    nNonOrthogonalCorrectors 1;
}

relaxationFactors
{
    equations
    {
        ".*"                1;
    }
}

// ************************************************************************* //
