/*--------------------------------*- C++ -*----------------------------------*\
| =========                 |                                                 |
| \\      /  F ield         | OpenFOAM: The Open Source CFD Toolbox           |
|  \\    /   O peration     | Version:  4.x                                   |
|   \\  /    A nd           | Web:      www.OpenFOAM.org                      |
|    \\/     M anipulation  |                                                 |
\*---------------------------------------------------------------------------*/
FoamFile
{
    version     2.0;
    format      ascii;
    class       polyBoundaryMesh;
    location    "constant/polyMesh";
    object      boundary;
}
// * * * * * * * * * * * * * * * * * * * * * * * * * * * * * * * * * * * * * //

6
(
    walls
    {
        type            wall;
        inGroups        1(wall);
        nFaces          5200;
        startFace       139400;
    }
    topInlet
    {
        type            patch;
        nFaces          400;
        startFace       144600;
    }
    bottomInlet
    {
        type            patch;
        nFaces          400;
        startFace       145000;
    }
    outlet
    {
        type            patch;
        nFaces          800;
        startFace       145400;
    }
    reflecting
    {
        type            patch;
        nFaces          2400;
        startFace       146200;
    }
    frontBack
    {
        type            empty;
        inGroups        1(empty);
        nFaces          0;
        startFace       148600;
    }
)

// ************************************************************************* //
