/*--------------------------------*- C++ -*----------------------------------*\
| =========                 |                                                 |
| \\      /  F ield         | OpenFOAM: The Open Source CFD Toolbox           |
|  \\    /   O peration     | Version:  4.x                                   |
|   \\  /    A nd           | Web:      www.OpenFOAM.org                      |
|    \\/     M anipulation  |                                                 |
\*---------------------------------------------------------------------------*/
FoamFile
{
    version     2.0;
    format      ascii;
    class       polyBoundaryMesh;
    location    "constant/polyMesh";
    object      boundary;
}
// * * * * * * * * * * * * * * * * * * * * * * * * * * * * * * * * * * * * * //

6
(
    walls
    {
        type            wall;
        inGroups        1(wall);
        nFaces          6600;
        startFace       174400;
    }
    topInlet
    {
        type            patch;
        nFaces          400;
        startFace       181000;
    }
    bottomInlet
    {
        type            patch;
        nFaces          400;
        startFace       181400;
    }
    outlet
    {
        type            patch;
        nFaces          800;
        startFace       181800;
    }
    reflecting
    {
        type            patch;
        nFaces          3000;
        startFace       182600;
    }
    frontBack
    {
        type            empty;
        inGroups        1(empty);
        nFaces          0;
        startFace       185600;
    }
)

// ************************************************************************* //
