/*--------------------------------*- C++ -*----------------------------------*\
| =========                 |                                                 |
| \\      /  F ield         | OpenFOAM: The Open Source CFD Toolbox           |
|  \\    /   O peration     | Version:  4.x                                   |
|   \\  /    A nd           | Web:      www.OpenFOAM.org                      |
|    \\/     M anipulation  |                                                 |
\*---------------------------------------------------------------------------*/
FoamFile
{
    version     2.0;
    format      ascii;
    class       polyBoundaryMesh;
    location    "constant/polyMesh";
    object      boundary;
}
// * * * * * * * * * * * * * * * * * * * * * * * * * * * * * * * * * * * * * //

6
(
    walls
    {
        type            wall;
        inGroups        1(wall);
        nFaces          6000;
        startFace       162800;
    }
    topInlet
    {
        type            patch;
        nFaces          400;
        startFace       168800;
    }
    bottomInlet
    {
        type            patch;
        nFaces          400;
        startFace       169200;
    }
    outlet
    {
        type            patch;
        nFaces          800;
        startFace       169600;
    }
    reflecting
    {
        type            patch;
        nFaces          2800;
        startFace       170400;
    }
    frontBack
    {
        type            empty;
        inGroups        1(empty);
        nFaces          0;
        startFace       173200;
    }
)

// ************************************************************************* //
