/*--------------------------------*- C++ -*----------------------------------*\
| =========                 |                                                 |
| \\      /  F ield         | OpenFOAM: The Open Source CFD Toolbox           |
|  \\    /   O peration     | Version:  4.x                                   |
|   \\  /    A nd           | Web:      www.OpenFOAM.org                      |
|    \\/     M anipulation  |                                                 |
\*---------------------------------------------------------------------------*/
FoamFile
{
    version     2.0;
    format      ascii;
    class       polyBoundaryMesh;
    location    "constant/polyMesh";
    object      boundary;
}
// * * * * * * * * * * * * * * * * * * * * * * * * * * * * * * * * * * * * * //

5
(
    walls
    {
        type            wall;
        inGroups        1(wall);
        nFaces          240;
        startFace       15800;
    }
    topInlet
    {
        type            patch;
        nFaces          40;
        startFace       16040;
    }
    bottomInlet
    {
        type            patch;
        nFaces          40;
        startFace       16080;
    }
    outlet
    {
        type            patch;
        nFaces          80;
        startFace       16120;
    }
    frontBack
    {
        type            empty;
        inGroups        1(empty);
        nFaces          16000;
        startFace       16200;
    }
)

// ************************************************************************* //
