/*--------------------------------*- C++ -*----------------------------------*\
| =========                 |                                                 |
| \\      /  F ield         | OpenFOAM: The Open Source CFD Toolbox           |
|  \\    /   O peration     | Version:  4.1                                   |
|   \\  /    A nd           | Web:      www.OpenFOAM.org                      |
|    \\/     M anipulation  |                                                 |
\*---------------------------------------------------------------------------*/
FoamFile
{
    version     2.0;
    format      ascii;
    class       polyBoundaryMesh;
    location    "constant/polyMesh";
    object      boundary;
}
// * * * * * * * * * * * * * * * * * * * * * * * * * * * * * * * * * * * * * //

5
(
    walls
    {
        type            wall;
        inGroups        1(wall);
        nFaces          100;
        startFace       2710;
    }
    topInlet
    {
        type            patch;
        nFaces          20;
        startFace       2810;
    }
    bottomInlet
    {
        type            patch;
        nFaces          20;
        startFace       2830;
    }
    outlet
    {
        type            patch;
        nFaces          40;
        startFace       2850;
    }
    frontBack
    {
        type            empty;
        inGroups        1(empty);
        nFaces          2800;
        startFace       2890;
    }
)

// ************************************************************************* //
