/*--------------------------------*- C++ -*----------------------------------*\
| =========                 |                                                 |
| \\      /  F ield         | OpenFOAM: The Open Source CFD Toolbox           |
|  \\    /   O peration     | Version:  4.1                                   |
|   \\  /    A nd           | Web:      www.OpenFOAM.org                      |
|    \\/     M anipulation  |                                                 |
\*---------------------------------------------------------------------------*/
FoamFile
{
    version     2.0;
    format      ascii;
    class       polyBoundaryMesh;
    location    "constant/polyMesh";
    object      boundary;
}
// * * * * * * * * * * * * * * * * * * * * * * * * * * * * * * * * * * * * * //

6
(
    walls
    {
        type            wall;
        inGroups        1(wall);
        nFaces          9800;
        startFace       130600;
    }
    topInlet
    {
        type            patch;
        nFaces          100;
        startFace       140400;
    }
    bottomInlet
    {
        type            patch;
        nFaces          100;
        startFace       140500;
    }
    outlet
    {
        type            patch;
        nFaces          200;
        startFace       140600;
    }
    reflecting
    {
        type            patch;
        nFaces          4600;
        startFace       140800;
    }
    frontBack
    {
        type            empty;
        inGroups        1(empty);
        nFaces          0;
        startFace       145400;
    }
)

// ************************************************************************* //
