/*--------------------------------*- C++ -*----------------------------------*\
| =========                 |                                                 |
| \\      /  F ield         | OpenFOAM: The Open Source CFD Toolbox           |
|  \\    /   O peration     | Version:  4.1                                   |
|   \\  /    A nd           | Web:      www.OpenFOAM.org                      |
|    \\/     M anipulation  |                                                 |
\*---------------------------------------------------------------------------*/
FoamFile
{
    version     2.0;
    format      ascii;
    class       polyBoundaryMesh;
    location    "constant/polyMesh";
    object      boundary;
}
// * * * * * * * * * * * * * * * * * * * * * * * * * * * * * * * * * * * * * //

6
(
    walls
    {
        type            wall;
        inGroups        1(wall);
        nFaces          3900;
        startFace       77700;
    }
    topInlet
    {
        type            patch;
        nFaces          225;
        startFace       81600;
    }
    bottomInlet
    {
        type            patch;
        nFaces          225;
        startFace       81825;
    }
    outlet
    {
        type            patch;
        nFaces          450;
        startFace       82050;
    }
    reflecting
    {
        type            patch;
        nFaces          1800;
        startFace       82500;
    }
    frontBack
    {
        type            empty;
        inGroups        1(empty);
        nFaces          0;
        startFace       84300;
    }
)

// ************************************************************************* //
