/*--------------------------------*- C++ -*----------------------------------*\
| =========                 |                                                 |
| \\      /  F ield         | OpenFOAM: The Open Source CFD Toolbox           |
|  \\    /   O peration     | Version:  4.x                                   |
|   \\  /    A nd           | Web:      www.OpenFOAM.org                      |
|    \\/     M anipulation  |                                                 |
\*---------------------------------------------------------------------------*/
FoamFile
{
    version     2.0;
    format      ascii;
    class       polyBoundaryMesh;
    location    "constant/polyMesh";
    object      boundary;
}
// * * * * * * * * * * * * * * * * * * * * * * * * * * * * * * * * * * * * * //

6
(
    walls
    {
        type            wall;
        inGroups        1(wall);
        nFaces          6000;
        startFace       210000;
    }
    topInlet
    {
        type            patch;
        nFaces          900;
        startFace       216000;
    }
    bottomInlet
    {
        type            patch;
        nFaces          900;
        startFace       216900;
    }
    outlet
    {
        type            patch;
        nFaces          1800;
        startFace       217800;
    }
    reflecting
    {
        type            patch;
        nFaces          2400;
        startFace       219600;
    }
    frontBack
    {
        type            empty;
        inGroups        1(empty);
        nFaces          0;
        startFace       222000;
    }
)

// ************************************************************************* //
