/*--------------------------------*- C++ -*----------------------------------*\
| =========                 |                                                 |
| \\      /  F ield         | OpenFOAM: The Open Source CFD Toolbox           |
|  \\    /   O peration     | Version:  4.x                                   |
|   \\  /    A nd           | Web:      www.OpenFOAM.org                      |
|    \\/     M anipulation  |                                                 |
\*---------------------------------------------------------------------------*/
FoamFile
{
    version     2.0;
    format      ascii;
    class       polyBoundaryMesh;
    location    "constant/polyMesh";
    object      boundary;
}
// * * * * * * * * * * * * * * * * * * * * * * * * * * * * * * * * * * * * * //

6
(
    walls
    {
        type            wall;
        inGroups        1(wall);
        nFaces          7500;
        startFace       289800;
    }
    topInlet
    {
        type            patch;
        nFaces          900;
        startFace       297300;
    }
    bottomInlet
    {
        type            patch;
        nFaces          900;
        startFace       298200;
    }
    outlet
    {
        type            patch;
        nFaces          1800;
        startFace       299100;
    }
    reflecting
    {
        type            patch;
        nFaces          3300;
        startFace       300900;
    }
    frontBack
    {
        type            empty;
        inGroups        1(empty);
        nFaces          0;
        startFace       304200;
    }
)

// ************************************************************************* //
